Version 4
SHEET 1 880 680
WIRE 64 -80 64 -144
WIRE 64 48 64 0
WIRE 208 48 64 48
WIRE 320 48 288 48
WIRE -64 64 -64 16
WIRE 176 112 176 0
WIRE 64 128 64 48
WIRE 160 128 64 128
WIRE 320 144 320 48
WIRE 320 144 224 144
WIRE 480 144 320 144
WIRE 160 160 64 160
WIRE -64 176 -64 144
WIRE -64 176 -224 176
WIRE 64 192 64 160
WIRE -64 208 -64 176
WIRE 208 208 208 176
WIRE 368 208 208 208
WIRE 368 240 368 208
WIRE -224 256 -224 176
WIRE 176 288 176 176
WIRE 64 320 64 272
WIRE -64 384 -64 288
FLAG -224 256 0
FLAG -64 16 +9V
FLAG -64 384 -9V
FLAG 64 320 0
FLAG 176 0 +9V
FLAG 176 288 -9V
FLAG 480 144 Vout
FLAG 64 160 Vin
FLAG 64 -144 0
FLAG 368 240 -9V
SYMBOL OpAmps\\ADA4898 192 160 R0
SYMATTR InstName U1
SYMBOL voltage -64 48 R0
WINDOW 123 0 0 Left 0
WINDOW 39 0 0 Left 0
SYMATTR InstName V1
SYMATTR Value 9
SYMBOL voltage -64 192 R0
WINDOW 123 0 0 Left 0
WINDOW 39 0 0 Left 0
SYMATTR InstName V2
SYMATTR Value 9
SYMBOL voltage 64 176 R0
WINDOW 123 0 0 Left 0
WINDOW 39 0 0 Left 0
SYMATTR InstName V3
SYMATTR Value SINE(0 3 1k 0 0 0 4)
SYMBOL res 304 32 R90
WINDOW 0 0 56 VBottom 2
WINDOW 3 32 56 VTop 2
SYMATTR InstName R1
SYMATTR Value 10k
SYMBOL res 80 16 R180
WINDOW 0 36 76 Left 2
WINDOW 3 36 40 Left 2
SYMATTR InstName R2
SYMATTR Value 10k
TEXT -240 472 Left 2 !.tran 10m
