Version 4
SHEET 1 880 680
WIRE 304 48 240 48
WIRE 416 48 384 48
WIRE -64 64 -64 16
WIRE 272 112 272 0
WIRE 144 128 64 128
WIRE 240 128 240 48
WIRE 240 128 224 128
WIRE 256 128 240 128
WIRE 416 144 416 48
WIRE 416 144 320 144
WIRE 576 144 416 144
WIRE 64 160 64 128
WIRE 256 160 224 160
WIRE -64 176 -64 144
WIRE -64 176 -224 176
WIRE 64 192 64 160
WIRE -64 208 -64 176
WIRE 224 240 224 160
WIRE -224 256 -224 176
WIRE 272 288 272 176
WIRE 64 320 64 272
WIRE -64 384 -64 288
FLAG -224 256 0
FLAG -64 16 +9V
FLAG -64 384 -6V
FLAG 64 320 0
FLAG 272 0 +9V
FLAG 272 288 -6V
FLAG 576 144 Vout
FLAG 64 160 Vin
FLAG 224 240 0
SYMBOL OpAmps\\ADA4898 288 160 R0
SYMATTR InstName U1
SYMBOL voltage -64 48 R0
WINDOW 123 0 0 Left 0
WINDOW 39 0 0 Left 0
SYMATTR InstName V1
SYMATTR Value 9
SYMBOL voltage -64 192 R0
WINDOW 123 0 0 Left 0
WINDOW 39 0 0 Left 0
SYMATTR InstName V2
SYMATTR Value 9
SYMBOL voltage 64 176 R0
WINDOW 123 0 0 Left 0
WINDOW 39 0 0 Left 0
SYMATTR InstName V3
SYMATTR Value PULSE(0 3 1m 1n 1n 0.5m 1m 4)
SYMBOL res 400 32 R90
WINDOW 0 0 56 VBottom 2
WINDOW 3 32 56 VTop 2
SYMATTR InstName R1
SYMATTR Value 10k
SYMBOL res 128 144 R270
WINDOW 0 32 56 VTop 2
WINDOW 3 0 56 VBottom 2
SYMATTR InstName R2
SYMATTR Value 2k
TEXT -240 472 Left 2 !.tran 10m
