Version 4
SHEET 1 936 680
WIRE 336 -32 80 -32
WIRE 80 0 80 -32
WIRE 80 0 -32 0
WIRE 336 0 336 -32
WIRE 80 80 80 0
WIRE 208 80 80 80
WIRE -32 112 -32 0
WIRE 80 112 80 80
WIRE 208 112 208 80
WIRE 880 112 880 64
WIRE 336 128 336 80
WIRE 720 144 448 144
WIRE 208 224 208 192
WIRE 288 224 208 224
WIRE 544 224 544 208
WIRE 448 240 448 144
WIRE 528 240 448 240
WIRE 720 256 720 144
WIRE 720 256 592 256
WIRE 880 256 880 192
WIRE 880 256 816 256
WIRE -32 272 -32 192
WIRE 288 272 288 224
WIRE 400 272 288 272
WIRE 528 272 400 272
WIRE 80 288 80 192
WIRE 208 288 208 224
WIRE 816 288 816 256
WIRE 544 304 544 288
WIRE 576 304 576 288
WIRE 576 304 544 304
WIRE 880 304 880 256
WIRE 544 320 544 304
WIRE 80 400 80 368
WIRE 208 400 208 368
WIRE 208 400 80 400
WIRE 80 448 80 400
WIRE 880 448 880 384
FLAG 816 288 0
FLAG 880 64 +9V
FLAG 880 448 -6V
FLAG 544 320 -6V
FLAG 544 208 +9V
FLAG 80 448 0
FLAG -32 272 0
FLAG 336 128 0
FLAG 400 272 Vin
FLAG 720 256 Vout
SYMBOL res 64 96 R0
SYMATTR InstName R1
SYMATTR Value 82k
SYMBOL res 192 96 R0
SYMATTR InstName R2
SYMBOL res 192 272 R0
SYMATTR InstName R3
SYMBOL res 64 272 R0
SYMATTR InstName R4
SYMATTR Value 9.1k
SYMBOL OpAmps\\ADA4898 560 272 R0
SYMATTR InstName U1
SYMBOL voltage 880 288 R0
WINDOW 123 0 0 Left 0
WINDOW 39 0 0 Left 0
SYMATTR InstName V1
SYMATTR Value 6
SYMBOL voltage 880 96 R0
WINDOW 123 0 0 Left 0
WINDOW 39 0 0 Left 0
SYMATTR InstName V2
SYMATTR Value 9
SYMBOL voltage -32 96 R0
WINDOW 3 -53 -151 Left 2
WINDOW 123 0 0 Left 0
WINDOW 39 0 0 Left 0
SYMATTR InstName V3
SYMATTR Value PULSE(0 1 1m 1n 1n 0.5m 1m 4)
SYMBOL res 320 -16 R0
SYMATTR InstName R5
SYMATTR Value 49.9
