Version 4
SHEET 1 880 680
WIRE -912 -224 -912 -320
WIRE -912 -80 -912 -144
WIRE -912 -80 -1024 -80
WIRE -912 -16 -912 -80
WIRE 288 -16 288 -96
WIRE 288 -16 0 -16
WIRE -1024 16 -1024 -80
WIRE 0 16 0 -16
WIRE 288 16 288 -16
WIRE 224 64 128 64
WIRE 0 128 0 96
WIRE 128 128 128 64
WIRE 128 128 0 128
WIRE 288 144 288 112
WIRE 464 144 288 144
WIRE 512 144 464 144
WIRE -912 160 -912 64
WIRE 0 176 0 128
WIRE 288 176 288 144
WIRE -288 224 -400 224
WIRE -160 224 -208 224
WIRE -64 224 -160 224
WIRE 128 224 128 128
WIRE 224 224 128 224
WIRE -160 288 -160 224
WIRE -400 320 -400 224
WIRE -400 432 -400 400
WIRE -160 432 -160 368
WIRE -160 432 -400 432
WIRE 0 432 0 272
WIRE 0 432 -160 432
WIRE 288 432 288 272
WIRE -160 512 -160 432
FLAG -912 160 -9V
FLAG -912 -320 15V
FLAG -1024 16 0
FLAG 288 432 -9V
FLAG 288 -96 15V
FLAG 464 144 Vout
FLAG -400 224 Vin
FLAG -160 512 0
SYMBOL npn 224 16 R0
SYMATTR InstName Q1
SYMBOL pnp 224 272 M180
SYMATTR InstName Q2
SYMBOL npn -64 176 R0
SYMATTR InstName Q3
SYMBOL voltage -912 -240 R0
WINDOW 123 0 0 Left 0
WINDOW 39 0 0 Left 0
SYMATTR InstName V1
SYMATTR Value 15
SYMBOL voltage -912 -32 R0
WINDOW 123 0 0 Left 0
WINDOW 39 0 0 Left 0
SYMATTR InstName V2
SYMATTR Value 9
SYMBOL res -16 0 R0
SYMATTR InstName R1
SYMATTR Value 10k
SYMBOL res -192 208 R90
WINDOW 0 0 56 VBottom 2
WINDOW 3 32 56 VTop 2
SYMATTR InstName R2
SYMATTR Value 10k
SYMBOL res -176 272 R0
SYMATTR InstName R3
SYMATTR Value 10k
SYMBOL voltage -400 304 R0
WINDOW 3 -194 187 Left 2
WINDOW 123 0 0 Left 0
WINDOW 39 0 0 Left 0
SYMATTR InstName V3
SYMATTR Value PULSE(0 3.3 1m 1n 1n 0.5m 1m 5)
TEXT -1040 520 Left 2 !.tran 10m
